[General]
#scheduler-class = "cRealTimeScheduler" #so that speed appears realistic
#debug-on-errors = true
#**.debug = true
tkenv-plugin-path = ../../../etc/plugins
sim-time-limit = 5 day
record-eventlog = false
cmdenv-config-name = SelfSimLATP
user-interface = Cmdenv
cmdenv-express-mode = true
cmdenv-performance-display = true

# count of nodes 
*.numHosts = 10
#**.mobility.initFromDisplayString = false
**.updateInterval = 0.1s # test with 0s too, and let getCurrentPosition update the display string from a test module

# area sizes
**.constraintAreaMinX = -10000m
**.constraintAreaMinY = -10000m
**.constraintAreaMinZ = 0m
**.constraintAreaMaxX = 10000m  
**.constraintAreaMaxY = 10000m 
**.constraintAreaMaxZ = 0m


[Config SelfSimLATP]
# for this mobility type exist specific parameter fileSuffix in SelfSimLATP
network = SelfSimLATPNetwork
description = "Levy Random Hot Spots: generation"
**.host*.mobility.ciP = 1				# scale coeff (c) in Levy PAUSE disttibution - 1 in external research paper
**.host*.mobility.aliP = 0.5			# power magnitude (alpha) in Levy PAUSE distribution - 0.5 in external research paper
**.host*.mobility.kForSpeed = 31.1457	# scale parameter for speed equation. Default value setted for KAIST (is computed by cAlfaFitting utility) 
**.host*.mobility.roForSpeed = 0.504349	# power parameter for speed equation. Default value setted for KAIST (is computed by cAlfaFitting utility)
# only for LevyHotSpotLATP* algorithms
**.host*.mobility.powAforHS = 2
**.host*.mobility.powAforWP = 0.01