[General]
#scheduler-class = "cRealTimeScheduler" #so that speed appears realistic
#debug-on-errors = true
tkenv-plugin-path = ../../../etc/plugins
sim-time-limit = 10day
check-signals = true

# параметр, показыющий какие эвристики использовать        										      
# 0 - нет ограничений (все эвристики) - LET_Threshold работает
# 1 - использовать только LET - LET_Threshold отключается (равен "бесконечности)
# 2 - использоват только MFV - LET_Threshold не имеет смысла, не используется
**.usedHeuristics = 0


*.numHosts = 10
**.constraintAreaMinX = -10000m
**.constraintAreaMinY = -10000m
**.constraintAreaMinZ = 0m
**.constraintAreaMaxX = 10000m  
**.constraintAreaMaxY = 10000m
**.constraintAreaMaxZ = 0m
**.updateInterval = 0.1s # test with 0s too, and let getCurrentPosition update the display string from a test module

#**.debug = true
#**.mobility.initFromDisplayString = false


[Config LevyHotSpotsLATP]
# for this mobility type exist specific parameter NodeID in LevyMobility
network = RegularRootLATPNetwork
description = "Routing based on RegularRootLATP mobility"
**.LET_Threshold = 100s			        # bound of trust time for LET algorithm
**.dayDuration = 3600s
**.rootPersistence = 0.5
**.host*.mobilityType = "LevyHotSpotsRandom"
**.host*.mobility.specification = "LevyHotSpotsRandom"
**.host*.mobility.ciJ = 10				# scale coeff (c) in Levy LENGTH disttibution - 10 in external research paper
**.host*.mobility.aliJ = 1.5			# power magnitude (alpha) in Levy LENGTH distribution - 0.5, 1.0, 1.5 in external research paper
**.host*.mobility.ciP = 1				# scale coeff (c) in Levy PAUSE disttibution - 1 in external research paper
**.host*.mobility.aliP = 0.5			# power magnitude (alpha) in Levy PAUSE distribution - 0.5 in external research paper
**.host*.mobility.speed = uniform(20mps,50mps) 	# fake parameter 
**.host*.mobility.waitTime = uniform(3s,8s)		# fake parameter
# only for LevyHotSpotLATP* algorithms
**.host*.mobility.powA = 2 


[Config SelfSimLATP]
# for this mobility type exist specific parameter NodeID in LevyMobility
network = NewSelfSimLATPNetwork
description = "Routing based on SLAW mobility"
**.LET_Threshold = 100s			        # bound of trust time for LET algorithm
**.dayDuration = 3600s
**.host*.mobility.ciP = 1				# scale coeff (c) in Levy PAUSE disttibution - 1 in external research paper
**.host*.mobility.aliP = 0.5			# power magnitude (alpha) in Levy PAUSE distribution - 0.5 in external research paper
**.host*.mobility.speed = uniform(20mps,50mps) 	# fake parameter 
**.host*.mobility.waitTime = uniform(3s,8s)		# fake parameter
**.host*.mobility.powAforHS = 2
**.host*.mobility.powAforWP = 0.01

[Config StatisticsCollector]
network = StatisticsCollectorNetwork
description = "Collecte statistics based on history files"
