[General]
#scheduler-class = "cRealTimeScheduler" #so that speed appears realistic
#debug-on-errors = true
#**.debug = true
tkenv-plugin-path = ../../../etc/plugins
sim-time-limit = 5 day
record-eventlog = false
cmdenv-config-name = RealMobility
user-interface = Cmdenv
cmdenv-express-mode = true
cmdenv-performance-display = true

# count of nodes 
*.numHosts = 10
**.updateInterval = 0.1s # test with 0s too, and let getCurrentPosition update the display string from a test module

# area sizes
#**.constraintAreaMinX = -14000m
#**.constraintAreaMinY = -14000m
#**.constraintAreaMinZ = 0m
#**.constraintAreaMaxX = 14000m  
#**.constraintAreaMaxY = 14000m 
#**.constraintAreaMaxZ = 0m


[Config RealMobility]
network = RealMobilityNetwork
description = "Real Mobility: generation"


#[Config BonnMotionMobility]
#network = RealMobilityNetwork
#description = "BonnMotionMobility: 3 hosts"
#**.host*.mobility.traceFile = "testTrace.movements"
#**.host*.mobility.nodeId = -1  #means "host module's index"