[General]
#scheduler-class = "cRealTimeScheduler" #so that speed appears realistic
#debug-on-errors = true
tkenv-plugin-path = ../../../etc/plugins
sim-time-limit = 10day

*.numHosts = 1
**.constraintAreaMinX = -10000m
**.constraintAreaMinY = -10000m
**.constraintAreaMinZ = 0m
**.constraintAreaMaxX = 10000m
**.constraintAreaMaxY = 10000m
**.constraintAreaMaxZ = 0m
**.updateInterval = 0.1s # test with 0s too, and let getCurrentPosition update the display string from a test module

#**.debug = true
#**.mobility.initFromDisplayString = false


[Config LevyMobility]
# for this mobility type exist specific parameter fileSuffix in LevyMobility
network = RealMobilityNetwork
description = "Levy Mobility: generation"
*.numHosts = 10
**.host*.mobilityType = "LevyMobility"
**.host*.mobility.specification = "LevyHotSpotsLATPCenterLogic"
**.host*.mobility.ciJ = 10				# scale coeff (c) in Levy LENGTH disttibution - 10 in external research paper
**.host*.mobility.aliJ = 1.5			# power magnitude (alpha) in Levy LENGTH distribution - 0.5, 1.0, 1.5 in external research paper
**.host*.mobility.ciP = 1				# scale coeff (c) in Levy PAUSE disttibution - 1 in external research paper
**.host*.mobility.aliP = 0.5			# power magnitude (alpha) in Levy PAUSE distribution - 0.5 in external research paper
**.host*.mobility.speed = uniform(20mps,50mps) 	# fake parameter 
**.host*.mobility.waitTime = uniform(3s,8s)		# fake parameter
# only for LevyHotSpotLATP* algorithms
**.host*.mobility.powA = 2 


[Config BonnMotionMobility]
network = RealMobilityNetwork
description = "BonnMotionMobility: 3 hosts"
*.numHosts = 3
**.host*.mobilityType = "BonnMotionMobility"
**.host*.mobility.traceFile = "testTrace.movements"
**.host*.mobility.nodeId = -1  #means "host module's index"

