[General]
#scheduler-class = "cRealTimeScheduler" #so that speed appears realistic
#debug-on-errors = true
#**.debug = true
tkenv-plugin-path = ../../../etc/plugins
sim-time-limit = 5 day
record-eventlog = false
cmdenv-config-name = LevyHotSpotsLATP
user-interface = Cmdenv
cmdenv-express-mode = true
cmdenv-performance-display = true

# count of nodes 
*.numHosts = 10
#**.mobility.initFromDisplayString = false
**.updateInterval = 0.1s # test with 0s too, and let getCurrentPosition update the display string from a test module

# area sizes
**.constraintAreaMinX = -14000m
**.constraintAreaMinY = -14000m
**.constraintAreaMinZ = 0m
**.constraintAreaMaxX = 14000m  
**.constraintAreaMaxY = 14000m 
**.constraintAreaMaxZ = 0m


[Config LevyHotSpotsLATP]
# for this mobility type exist specific parameter fileSuffix in LevyMobility
network = LevyHotSpotsLATPNetwork
description = "Levy Random Hot Spots: generation"
**.host*.mobilityType = "LevyHotSpotsRandom"
**.host*.mobility.specification = "LevyHotSpotsLATPCenterLogic"
**.host*.mobility.countOfFirstSkippedLongFlight = 1 # count of FIRST LONG flights that will be skipped in CURRENT hotspot
**.host*.mobility.ciJ = 5				# scale coeff (c) in Levy LENGTH disttibution - 10 in external research paper
**.host*.mobility.aliJ = 1.5			# power magnitude (alpha) in Levy LENGTH distribution - 0.5, 1.0, 1.5 in external research paper
**.host*.mobility.ciP = 1				# scale coeff (c) in Levy PAUSE disttibution - 1 in external research paper
**.host*.mobility.aliP = 0.5			# power magnitude (alpha) in Levy PAUSE distribution - 0.5 in external research paper
**.host*.mobility.kForSpeed = 31.1457	# scale parameter for speed equation. Default value setted for KAIST (is computed by cAlfaFitting utility) 
**.host*.mobility.roForSpeed = 0.504349	# power parameter for speed equation. Default value setted for KAIST (is computed by cAlfaFitting utility)
# only for LevyHotSpotLATP* algorithms
**.host*.mobility.powA = 1.8
